---- qbsp / ericw-tools v0.18.1-32-g6660c5f ----
Input file: DeathValley.map
Output file: DeathValley.bsp

---- LoadMapFile ----
*** WARNING 06: No info_player_deathmatch entities in level
         1879 faces
          316 brushes
           11 entities
            9 unique texnames
           61 texinfo

Opened WAD: E:/2simm/Documents/GitHub/Quake-Map/wads/prototype.wad
Processing hull 0...
---- Brush_LoadEntity ----
          316 brushes
          272 planes
---- CSGFaces ----
         1879 brushfaces
         1377 csgfaces
         1106 mergedfaces
---- SolidBSP ----
         1803 split nodes
          796 solid leafs
          980 empty leafs
           28 water leafs
            0 detail leafs
            0 detail illusionary leafs
            0 detail fence leafs
            0 illusionary visblocker leafs
         3470 leaffaces
         3183 nodefaces
---- Portalize ----
         1008 vis leafs
         1008 vis clusters
         2867 vis portals
---- FillOutside ----
          575 outleafs
---- MergeAll ----
          861 mergefaces
---- SolidBSP ----
          618 split nodes
          341 solid leafs
          271 empty leafs
            7 water leafs
            0 detail leafs
            0 detail illusionary leafs
            0 detail fence leafs
            0 illusionary visblocker leafs
         1688 leaffaces
         1343 nodefaces
---- Portalize ----
          278 vis leafs
          278 vis clusters
          710 vis portals
---- Tjunc ----
         1344 world edges
         4765 edge points
         1054 edges added by tjunctions
            0 faces added by tjunctions
---- MakeFaceEdges ----
---- GrowRegions ----
Processing hull 1...
Processing hull 2...
*** WARNING 16: Texture __TB_empty not found
---- WriteBSPFile ----
Wrote DeathValley.bsp
          421 planes             8420
         1805 vertexes          21660
          618 nodes             14832
           38 texinfo            1520
         1343 faces             26860
         1815 clipnodes         14520
          279 leafs              7812
         1688 marksurfaces       3376
         6432 surfedges         25728
         3217 edges             12868
            9 textures         141800
              lightdata             0
              visdata               0
              entdata             154

0.373 seconds elapsed
Peak memory usage: 14114140 (13.5M)
