---- qbsp / ericw-tools v0.18.1-32-g6660c5f ----
Input file: DeathValley.map
Output file: DeathValley.bsp

---- LoadMapFile ----
         2789 faces
          468 brushes
           47 entities
           40 unique texnames
          160 texinfo

Opened WAD: E:/2simm/Documents/GitHub/Quake-Map/wads/prototype.wad
Opened WAD: E:/2simm/Documents/GitHub/Quake-Map/wads/free.wad
Processing hull 0...
---- Brush_LoadEntity ----
          468 brushes
          313 planes
---- CSGFaces ----
         2789 brushfaces
         2229 csgfaces
         1936 mergedfaces
---- SolidBSP ----
         2621 split nodes
         1174 solid leafs
         1441 empty leafs
            7 water leafs
            0 detail leafs
            0 detail illusionary leafs
            0 detail fence leafs
            0 illusionary visblocker leafs
         5201 leaffaces
         4715 nodefaces
---- Portalize ----
         1448 vis leafs
         1448 vis clusters
         3914 vis portals
---- FillOutside ----
          860 outleafs
---- MergeAll ----
         1296 mergefaces
---- SolidBSP ----
          918 split nodes
          537 solid leafs
          379 empty leafs
            3 water leafs
            0 detail leafs
            0 detail illusionary leafs
            0 detail fence leafs
            0 illusionary visblocker leafs
         2362 leaffaces
         1876 nodefaces
---- Portalize ----
          382 vis leafs
          382 vis clusters
          905 vis portals
---- Tjunc ----
         1863 world edges
         6635 edge points
         1418 edges added by tjunctions
            0 faces added by tjunctions
---- MakeFaceEdges ----
---- GrowRegions ----
Processing hull 1...
Processing hull 2...
---- WriteBSPFile ----
Wrote DeathValley.bsp
          497 planes             9940
         2506 vertexes          30072
          918 nodes             22032
           91 texinfo            3640
         1876 faces             37520
         2259 clipnodes         18072
          383 leafs             10724
         2362 marksurfaces       4724
         8928 surfedges         35712
         4465 edges             17860
           40 textures         921124
              lightdata             0
              visdata               0
              entdata            1778

0.464 seconds elapsed
Peak memory usage: 20588040 (19.6M)
