---- qbsp / ericw-tools v0.18.1-32-g6660c5f ----
Input file: DeathValley.map
Output file: DeathValley.bsp

---- LoadMapFile ----
         2657 faces
          446 brushes
           43 entities
           10 unique texnames
           75 texinfo

Opened WAD: E:/2simm/Documents/GitHub/Quake-Map/wads/prototype.wad
Processing hull 0...
---- Brush_LoadEntity ----
          446 brushes
          309 planes
---- CSGFaces ----
         2657 brushfaces
         2195 csgfaces
         1885 mergedfaces
---- SolidBSP ----
         2602 split nodes
         1173 solid leafs
         1412 empty leafs
           18 water leafs
            0 detail leafs
            0 detail illusionary leafs
            0 detail fence leafs
            0 illusionary visblocker leafs
         5145 leaffaces
         4655 nodefaces
---- Portalize ----
         1430 vis leafs
         1430 vis clusters
         3828 vis portals
---- FillOutside ----
*** WARNING 10: Reached occupant at (672 72 504), no filling performed.
Leak file written to DeathValley.pts
---- MakeFaceEdges ----
---- GrowRegions ----
Processing hull 1...
Processing hull 2...
---- WriteBSPFile ----
Wrote DeathValley.bsp
          514 planes            10280
         5703 vertexes          68436
         2602 nodes             62448
           54 texinfo            2160
         4655 faces             93100
         2325 clipnodes         18600
         1431 leafs             40068
         5145 marksurfaces      10290
        18601 surfedges         74404
        11879 edges             47516
           10 textures         185404
              lightdata             0
              visdata               0
              entdata            1778

0.451 seconds elapsed
Peak memory usage: 25534898 (24.4M)
