---- qbsp / ericw-tools v0.18.1-32-g6660c5f ----
Input file: DeathValley.map
Output file: DeathValley.bsp

---- LoadMapFile ----
         2831 faces
          475 brushes
           47 entities
           45 unique texnames
          179 texinfo

Opened WAD: E:/2simm/Documents/GitHub/Quake-Map/wads/prototype.wad
Opened WAD: E:/2simm/Documents/GitHub/Quake-Map/wads/free.wad
Processing hull 0...
---- Brush_LoadEntity ----
          474 brushes
          323 planes
---- CSGFaces ----
         2825 brushfaces
         2258 csgfaces
         1967 mergedfaces
---- SolidBSP ----
         2700 split nodes
         1201 solid leafs
         1487 empty leafs
           13 water leafs
            0 detail leafs
            0 detail illusionary leafs
            0 detail fence leafs
            0 illusionary visblocker leafs
         5321 leaffaces
         4819 nodefaces
---- Portalize ----
         1500 vis leafs
         1500 vis clusters
         4075 vis portals
---- FillOutside ----
          878 outleafs
---- MergeAll ----
         1328 mergefaces
---- SolidBSP ----
          942 split nodes
          549 solid leafs
          389 empty leafs
            5 water leafs
            0 detail leafs
            0 detail illusionary leafs
            0 detail fence leafs
            0 illusionary visblocker leafs
         2403 leaffaces
         1914 nodefaces
---- Portalize ----
          394 vis leafs
          394 vis clusters
          938 vis portals
---- Tjunc ----
         1903 world edges
         6756 edge points
         1440 edges added by tjunctions
            0 faces added by tjunctions
---- MakeFaceEdges ----
---- GrowRegions ----
Processing hull 1...
Processing hull 2...
---- WriteBSPFile ----
Wrote DeathValley.bsp
          508 planes            10160
         2550 vertexes          30600
          942 nodes             22608
          101 texinfo            4040
         1914 faces             38280
         2276 clipnodes         18208
          395 leafs             11060
         2403 marksurfaces       4806
         9100 surfedges         36400
         4551 edges             18204
           45 textures         948544
              lightdata             0
              visdata               0
              entdata            1807

0.496 seconds elapsed
Peak memory usage: 20797550 (19.8M)
