---- qbsp / ericw-tools v0.18.1-32-g6660c5f ----
Input file: Metrics.map
Output file: Metrics.bsp

---- LoadMapFile ----
*** WARNING 06: No info_player_deathmatch entities in level
         1223 faces
          204 brushes
            2 entities
            5 unique texnames
           26 texinfo

Opened WAD: E:/2simm/Documents/GitHub/CheyenneMountain-QuakeMap/wads/prototype.wad
Processing hull 0...
---- Brush_LoadEntity ----
          204 brushes
          238 planes
---- CSGFaces ----
         1223 brushfaces
         1289 csgfaces
         1210 mergedfaces
---- SolidBSP ----
         1162 split nodes
          426 solid leafs
          737 empty leafs
            0 water leafs
            0 detail leafs
            0 detail illusionary leafs
            0 detail fence leafs
            0 illusionary visblocker leafs
         2027 leaffaces
         1980 nodefaces
---- Portalize ----
          737 vis leafs
          737 vis clusters
         2294 vis portals
---- FillOutside ----
*** WARNING 10: Reached occupant at (64 160 24), no filling performed.
Leak file written to Metrics.pts
---- MakeFaceEdges ----
---- GrowRegions ----
Processing hull 1...
*** WARNING 19: No entities in empty space -- no filling performed (hull 1)
Processing hull 2...
*** WARNING 19: No entities in empty space -- no filling performed (hull 2)
---- WriteBSPFile ----
Wrote Metrics.bsp
          431 planes             8620
         2525 vertexes          30300
         1162 nodes             27888
           26 texinfo            1040
         1980 faces             39600
         2715 clipnodes         21720
          738 leafs             20664
         2027 marksurfaces       4054
         7918 surfedges         31672
         5136 edges             20544
            5 textures         109024
              lightdata             0
              visdata               0
              entdata             185

0.265 seconds elapsed
Peak memory usage: 12638406 (12.1M)
