---- qbsp / ericw-tools v0.18.1-32-g6660c5f ----
Input file: ZambieMap.map
Output file: ZambieMap.bsp

---- LoadMapFile ----
*** WARNING 06: No info_player_deathmatch entities in level
           54 faces
            9 brushes
            7 entities
            4 unique texnames
           20 texinfo

Opened WAD: E:/2simm/Documents/GitHub/Quake-Map/wads/START.WAD
Processing hull 0...
---- Brush_LoadEntity ----
            9 brushes
           21 planes
---- CSGFaces ----
           54 brushfaces
           54 csgfaces
           54 mergedfaces
---- SolidBSP ----
          100 split nodes
           34 solid leafs
           67 empty leafs
            0 water leafs
            0 detail leafs
            0 detail illusionary leafs
            0 detail fence leafs
            0 illusionary visblocker leafs
          174 leaffaces
          169 nodefaces
---- Portalize ----
           67 vis leafs
           67 vis clusters
          140 vis portals
---- FillOutside ----
           58 outleafs
---- MergeAll ----
           29 mergefaces
---- SolidBSP ----
           21 split nodes
           14 solid leafs
            8 empty leafs
            0 water leafs
            0 detail leafs
            0 detail illusionary leafs
            0 detail fence leafs
            0 illusionary visblocker leafs
           61 leaffaces
           49 nodefaces
---- Portalize ----
            8 vis leafs
            8 vis clusters
           10 vis portals
---- Tjunc ----
           50 world edges
          166 edge points
           34 edges added by tjunctions
            0 faces added by tjunctions
---- MakeFaceEdges ----
---- GrowRegions ----
Processing hull 1...
Processing hull 2...
---- WriteBSPFile ----
Wrote ZambieMap.bsp
           38 planes              760
           62 vertexes            744
           21 nodes               504
            7 texinfo             280
           49 faces               980
           54 clipnodes           432
            9 leafs               252
           61 marksurfaces        122
          230 surfedges           920
          116 edges               464
            4 textures          23732
              lightdata             0
              visdata               0
              entdata             459

0.107 seconds elapsed
Peak memory usage: 623274 (0.6M)
